Test_Network/condensed/network_10/Feeder_1/Lines.txt
New Line.LINE118 Bus1=116 Bus2=119 phases=3 Linecode=25_SAC_XC Length=6.4739 Units=m
New Line.LINE119 Bus1=116 Bus2=120 phases=3 Linecode=25_SAC_XC Length=9.0685 Units=m
New Line.LINE120 Bus1=116 Bus2=121 phases=3 Linecode=25_SAC_XC Length=9.0685 Units=m
New Line.LINE121 Bus1=116 Bus2=122 phases=3 Linecode=25_SAC_XC Length=9.0685 Units=m
New Line.LINE122 Bus1=116 Bus2=123 phases=3 Linecode=25_SAC_XC Length=9.0685 Units=m
New Line.LINE123 Bus1=116 Bus2=124 phases=3 Linecode=25_SAC_XC Length=9.0685 Units=m
New Line.LINE124 Bus1=116 Bus2=125 phases=3 Linecode=25_SAC_XC Length=9.0685 Units=m
New Line.LINE125 Bus1=116 Bus2=126 phases=3 Linecode=25_SAC_XC Length=9.0685 Units=m
New Line.LINE126 Bus1=116 Bus2=127 phases=3 Linecode=25_SAC_XC Length=9.0685 Units=m
New Line.LINE127 Bus1=116 Bus2=128 phases=3 Linecode=25_SAC_XC Length=9.0685 Units=m
New Line.LINE128 Bus1=116 Bus2=129 phases=3 Linecode=25_SAC_XC Length=9.0685 Units=m
New Line.LINE129 Bus1=116 Bus2=130 phases=3 Linecode=25_SAC_XC Length=9.0685 Units=m
New Line.LINE131 Bus1=120 Bus2=132 phases=3 Linecode=25_SAC_XC Length=10.4913 Units=m
New Line.LINE240 Bus1=235 Bus2=241 phases=3 Linecode=25_SAC_XC Length=36.3848 Units=m
New Line.LINE241 Bus1=235 Bus2=242 phases=3 Linecode=25_SAC_XC Length=36.3848 Units=m
New Line.LINE242 Bus1=235 Bus2=243 phases=3 Linecode=25_SAC_XC Length=36.3848 Units=m
New Line.LINE243 Bus1=235 Bus2=244 phases=3 Linecode=25_SAC_XC Length=36.3848 Units=m
New Line.LINE244 Bus1=235 Bus2=245 phases=3 Linecode=25_SAC_XC Length=36.3848 Units=m
New Line.LINE245 Bus1=235 Bus2=246 phases=3 Linecode=25_SAC_XC Length=36.3848 Units=m
New Line.LINE246 Bus1=235 Bus2=247 phases=3 Linecode=25_SAC_XC Length=36.3848 Units=m
New Line.LINE247 Bus1=235 Bus2=248 phases=3 Linecode=25_SAC_XC Length=15.8156 Units=m
New Line.LINECmpd_0 Bus1=1 Bus2=28 phases=3 Linecode=4c_.25 Length=7.735046 Units=m
New Line.LINECmpd_1 Bus1=192 Bus2=235 phases=3 Linecode=3c_300_ASN Length=31.4648 Units=m
New Line.LINECmpd_2 Bus1=46 Bus2=139 phases=3 Linecode=3c_300_SAC_XC Length=20.430236 Units=m
New Line.LINECmpd_3 Bus1=46 Bus2=116 phases=3 Linecode=3c_300_SAC_XC Length=47.323946 Units=m
New Line.LINECmpd_4 Bus1=151 Bus2=192 phases=3 Linecode=3c_300_SAC_XC Length=8.09033 Units=m
New Line.LINECmpd_5 Bus1=28 Bus2=46 phases=3 Linecode=3c_240_SAC_XC Length=13.194035 Units=m
New Line.LINECmpd_6 Bus1=139 Bus2=151 phases=3 Linecode=4c_300_SAC Length=5.3426 Units=m
